WARNING: Can't resolve .param x2=r*(1-(val/100))
WARNING: Can't resolve .param x1=r*(val/100)
Questionable use of curly braces in "r1 1 2 {x1}"
    Error: yet unevaluated parameter in: "[x1]"
Questionable use of curly braces in "r2 2 3 {x2}"
    Error: yet unevaluated parameter in: "[x2]"
LTspice 24.0.12 for Windows
Circuit: * C:\Users\Dell\Desktop\triack_LTspiece\LTspice_lib\pot.asc
Start Time: Sat Mar 15 18:04:12 2025
Error on line 2 : r1 1 2 (x1)
	 Unable to find definition of model "x1"
Error on line 3 : r2 2 3 (x2)
	 Unable to find definition of model "x2"
solver = Normal
Maximum thread count: 8
tnom = 27
temp = 27
method = modified trap
Fatal Error: This circuit does not have a conduction path to ground!
   Please flag a node as ground.
