LTspice 24.0.12 for Windows
Circuit: * C:\Users\Dell\Desktop\triack_LTspiece\Triac_control_linear.asc
Start Time: Thu Apr  3 18:21:21 2025
solver = Normal
Maximum thread count: 8
tnom = 27
temp = 27
method = modified trap
WARNING: Node N032 is floating.
WARNING: Node N038 is floating.

WARNING: Less than two connections to node n037.  This node is used by a6.
Direct Newton iteration failed to find .op point.  (Use ".option noopiter" to skip.)
Starting Gmin stepping
Gmin = 10
Gmin = 1.07374
Gmin = 0.115292
Gmin = 0.0123794
Gmin = 0.00132923
Gmin = 0.000142725
Gmin = 1.5325e-05
Gmin = 1.6455e-06
Gmin = 1.76685e-07
Gmin = 1.89714e-08
Gmin = 2.03704e-09
Gmin = 2.18725e-10
Gmin = 2.34854e-11
Gmin = 2.52173e-12
Gmin = 2.70769e-13
Gmin = 0
Gmin stepping succeeded in finding the operating point.

Heightened Def Con from 4.45038e-06 to 4.4515e-06
Heightened Def Con from 0.0108595 to 0.0108595
Heightened Def Con from 0.0109905 to 0.0109905
Heightened Def Con from 0.0200954 to 0.0200954
Heightened Def Con from 0.0200954 +to 0.0200954
Heightened Def Con from 0.0201439 to 0.0201439
Heightened Def Con from 0.0300933 to 0.0300933
Heightened Def Con from 0.0300933 to 0.0300933
Heightened Def Con from 0.0301418 to 0.0301418
Heightened Def Con from 0.0400955 +to 0.0400955
Heightened Def Con from 0.0400955 +to 0.0400955
Heightened Def Con from 0.0400957 +to 0.0400957
Heightened Def Con from 0.0401439 to 0.0401439
Heightened Def Con from 0.0500928 to 0.0500928
Heightened Def Con from 0.0600955 to 0.0600955
Heightened Def Con from 0.0600955 +++to 0.0600955
Heightened Def Con from 0.0600955 to 0.0600955
Heightened Def Con from 0.0600955 to 0.0600955
Heightened Def Con from 0.0600955 to 0.0600955
Heightened Def Con from 0.0600955 +++to 0.0600955
Heightened Def Con from 0.0600955 +++to 0.0600955
Heightened Def Con from 0.0600955 to 0.0600955
Heightened Def Con from 0.0600955 to 0.0600955
Heightened Def Con from 0.0600955 +++to 0.0600955
Heightened Def Con from 0.0600957 ++++to 0.0600957
Heightened Def Con from 0.0601439 to 0.0601439
Heightened Def Con from 0.0700933 to 0.0700933
Heightened Def Con from 0.0700933 to 0.0700933
Heightened Def Con from 0.0800956 to 0.0800956
Heightened Def Con from 0.0800956 to 0.0800956
Heightened Def Con from 0.0800958 +to 0.0800958
Heightened Def Con from 0.0800958 to 0.0800958
Heightened Def Con from 0.0800958 to 0.0800958
Heightened Def Con from 0.0800958 to 0.0800958
Heightened Def Con from 0.0800958 to 0.0800958
Heightened Def Con from 0.080144 to 0.080144
Heightened Def Con from 0.0901416 to 0.0901416
Total elapsed time: 12.423 seconds.

