LTspice 24.0.12 for Windows
Circuit: * File : standard_snubberless_triacs.lib
Start Time: Tue Mar 18 22:27:01 2025
Fatal Error: No analysis request found.
